# Name file for MODFLOW-2005, generated by Flopy.
#xul:0, yul:1, rotation:0, proj4_str:EPSG:4326 ,start_datetime:1-1-1970
LIST           2 hi.list
DIS           11 hi.dis 
BAS6          13 hi.bas 
LPF           15 hi.lpf 
OC            14 hi.oc 
DATA(BINARY)  51 hi.hds REPLACE
DATA(BINARY)  52 hi.ddn REPLACE
DATA(BINARY)  53 hi.cbc REPLACE
PCG           27 hi.pcg 
