# Name file for MODFLOW-2005, generated by Flopy.
#xul:0, yul:1, rotation:0, proj4_str:EPSG:4326 ,start_datetime:1-1-1970
LIST           2 lo.list
DIS           11 lo.dis 
BAS6          13 lo.bas 
LPF           15 lo.lpf 
OC            14 lo.oc 
DATA(BINARY)  51 lo.hds REPLACE
DATA(BINARY)  52 lo.ddn REPLACE
DATA(BINARY)  53 lo.cbc REPLACE
PCG           27 lo.pcg 
