# Name file for MODFLOW-2005, generated by Flopy.
#xul:0, yul:1, rotation:0, proj4_str:EPSG:4326 ,start_datetime:1-1-1970
LIST           2 mid.list
DIS           11 mid.dis 
BAS6          13 mid.bas 
LPF           15 mid.lpf 
OC            14 mid.oc 
DATA(BINARY)  51 mid.hds REPLACE
DATA(BINARY)  52 mid.ddn REPLACE
DATA(BINARY)  53 mid.cbc REPLACE
PCG           27 mid.pcg 
