# Name file for MODFLOW-2005, generated by Flopy.
#xul:0, yul:1, rotation:0, proj4_str:EPSG:4326 ,start_datetime:1-1-1970
LIST           2 start.list
DIS           11 start.dis 
BAS6          13 start.bas 
LPF           15 start.lpf 
OC            14 start.oc 
DATA(BINARY)  51 start.hds REPLACE
DATA(BINARY)  52 start.ddn REPLACE
DATA(BINARY)  53 start.cbc REPLACE
PCG           27 start.pcg 
